Version 4
SHEET 1 1788 948
WIRE -112 64 -560 64
WIRE 0 64 -112 64
WIRE 400 64 0 64
WIRE 0 128 0 64
WIRE 400 128 400 64
WIRE -256 256 -288 256
WIRE -208 256 -256 256
WIRE -96 256 -144 256
WIRE 512 256 480 256
WIRE 624 256 576 256
WIRE 656 256 624 256
WIRE 1456 288 1296 288
WIRE 1536 288 1456 288
WIRE 1664 288 1616 288
WIRE 1712 288 1664 288
WIRE 0 304 0 208
WIRE 400 304 400 208
WIRE -288 352 -288 256
WIRE -208 352 -288 352
WIRE -96 352 -96 256
WIRE -96 352 -128 352
WIRE -80 352 -96 352
WIRE 480 352 480 256
WIRE 512 352 480 352
WIRE 656 352 656 256
WIRE 656 352 592 352
WIRE 656 384 656 352
WIRE 1296 384 1296 288
WIRE 1456 384 1456 288
WIRE -560 400 -560 64
WIRE -288 400 -288 352
WIRE 1712 464 1712 288
WIRE 0 480 0 400
WIRE 32 480 0 480
WIRE 144 480 112 480
WIRE 160 480 144 480
WIRE 256 480 240 480
WIRE 272 480 256 480
WIRE 336 480 304 480
WIRE 400 480 400 400
WIRE 528 480 400 480
WIRE 656 480 656 464
WIRE 656 480 528 480
WIRE 1088 480 1040 480
WIRE 1232 480 1168 480
WIRE 1296 480 1296 448
WIRE 1296 480 1232 480
WIRE -288 512 -288 480
WIRE -48 512 -288 512
WIRE 0 512 0 480
WIRE 0 512 -48 512
WIRE 304 512 304 480
WIRE 512 528 480 528
WIRE 640 528 576 528
WIRE 656 528 640 528
WIRE 1040 544 1040 480
WIRE 1040 544 928 544
WIRE 0 560 0 512
WIRE 400 560 400 480
WIRE 928 576 928 544
WIRE 1456 592 1456 448
WIRE 1456 592 1040 592
WIRE -256 608 -288 608
WIRE -240 608 -256 608
WIRE -192 608 -240 608
WIRE -96 608 -112 608
WIRE -80 608 -96 608
WIRE 272 608 272 480
WIRE 304 608 304 592
WIRE 304 608 272 608
WIRE 480 608 480 528
WIRE 512 608 480 608
WIRE 656 608 656 528
WIRE 656 608 592 608
WIRE 1296 608 1296 480
WIRE 1456 608 1456 592
WIRE -240 688 -240 608
WIRE -192 688 -240 688
WIRE -96 688 -96 608
WIRE -96 688 -128 688
WIRE 656 688 656 608
WIRE -288 704 -288 608
WIRE 928 720 928 656
WIRE 1040 720 1040 592
WIRE 1040 720 928 720
WIRE 1296 736 1296 672
WIRE 1456 736 1456 672
WIRE 1456 736 1296 736
WIRE 1712 736 1712 528
WIRE 1712 736 1456 736
WIRE 1456 800 1456 736
WIRE -560 816 -560 480
WIRE -288 816 -288 784
WIRE -288 816 -560 816
WIRE 0 816 0 656
WIRE 0 816 -288 816
WIRE 400 816 400 656
WIRE 400 816 0 816
WIRE 656 816 656 768
WIRE 656 816 400 816
WIRE 0 928 0 816
FLAG 0 928 0
FLAG 1456 800 0
FLAG -112 64 DC
FLAG -256 608 V3
FLAG -256 256 V1
FLAG 624 256 V2
FLAG 640 528 V4
FLAG 1232 480 L3
FLAG 1664 288 C2out
FLAG -48 512 L1in
FLAG 528 480 C1out
FLAG 256 480 L2o
FLAG 144 480 L1o
DATAFLAG -96 272 ""
DATAFLAG -96 608 ""
DATAFLAG -512 816 ""
DATAFLAG -320 64 ""
DATAFLAG -144 512 ""
DATAFLAG 1152 592 ""
SYMBOL voltage -288 384 R0
WINDOW 123 0 0 Left 0
WINDOW 39 0 0 Left 0
SYMATTR InstName V1
SYMATTR Value PULSE(0 20 5u 0.2u 0.2u 4u 10u)
SYMBOL voltage -288 688 R0
WINDOW 123 0 0 Left 0
WINDOW 39 0 0 Left 0
SYMATTR InstName V3
SYMATTR Value PULSE(0 20 0 0.2u 0.2u 4u 10u)
SYMBOL voltage 656 672 R0
WINDOW 123 0 0 Left 0
WINDOW 39 0 0 Left 0
SYMATTR InstName V4
SYMATTR Value PULSE(0 20 5u 0.2u 0.2u 4u 10u)
SYMBOL res -16 112 R0
WINDOW 0 42 40 Left 2
SYMATTR InstName R1
SYMATTR Value 0.1
SYMATTR SpiceLine tol=5 pwr=25
SYMBOL res -112 336 R90
WINDOW 0 0 56 VBottom 2
WINDOW 3 32 56 VTop 2
SYMATTR InstName R3
SYMATTR Value 10
SYMATTR SpiceLine tol=1 pwr=0.1
SYMBOL res -96 592 R90
WINDOW 0 0 56 VBottom 2
WINDOW 3 32 56 VTop 2
SYMATTR InstName R4
SYMATTR Value 10
SYMATTR SpiceLine tol=1 pwr=0.1
SYMBOL res 608 336 R90
WINDOW 0 0 56 VBottom 2
WINDOW 3 32 56 VTop 2
SYMATTR InstName R5
SYMATTR Value 10
SYMATTR SpiceLine tol=1 pwr=0.1
SYMBOL res 608 592 R90
WINDOW 0 0 56 VBottom 2
WINDOW 3 32 56 VTop 2
SYMATTR InstName R6
SYMATTR Value 10
SYMATTR SpiceLine tol=1 pwr=0.1
SYMBOL voltage 656 368 R0
WINDOW 123 0 0 Left 0
WINDOW 39 0 0 Left 0
SYMATTR InstName V2
SYMATTR Value PULSE(0 20 0 0.2u 0.2u 4u 10u)
SYMBOL voltage -560 384 R0
WINDOW 123 0 0 Left 0
WINDOW 39 24 124 Left 2
SYMATTR InstName V5
SYMATTR Value 300
SYMBOL ind 16 496 R270
WINDOW 0 32 56 VTop 2
WINDOW 3 5 56 VBottom 2
SYMATTR InstName L1
SYMATTR Value 7µ
SYMBOL ind2 144 496 R270
WINDOW 0 32 56 VTop 2
WINDOW 3 5 56 VBottom 2
SYMATTR InstName L2
SYMATTR Value 32µ
SYMATTR Type ind
SYMBOL cap 400 464 R90
WINDOW 0 0 32 VBottom 2
WINDOW 3 32 32 VTop 2
SYMATTR InstName C1
SYMATTR Value 1.5µ
SYMBOL res 384 112 R0
SYMATTR InstName R2
SYMATTR Value 0.1
SYMATTR SpiceLine tol=4 pwr=25
SYMBOL diode 512 272 R270
WINDOW 0 32 32 VTop 2
WINDOW 3 0 32 VBottom 2
SYMATTR InstName D1
SYMATTR Value 1SR156-400
SYMBOL diode 512 544 R270
WINDOW 0 32 32 VTop 2
WINDOW 3 0 32 VBottom 2
SYMATTR InstName D2
SYMATTR Value 1SR156-400
SYMBOL diode -144 272 M270
WINDOW 0 32 32 VTop 2
WINDOW 3 0 32 VBottom 2
SYMATTR InstName D3
SYMATTR Value 1SR156-400
SYMBOL diode -128 704 M270
WINDOW 0 32 32 VTop 2
WINDOW 3 0 32 VBottom 2
SYMATTR InstName D4
SYMATTR Value 1SR156-400
SYMBOL ind2 912 560 R0
SYMATTR InstName L3
SYMATTR Value 100m
SYMATTR Type ind
SYMBOL diode 1312 448 R180
WINDOW 0 24 64 Left 2
WINDOW 3 24 0 Left 2
SYMATTR InstName D5
SYMATTR Value RFN10NS6S
SYMBOL diode 1312 672 R180
WINDOW 0 24 64 Left 2
WINDOW 3 24 0 Left 2
SYMATTR InstName D6
SYMATTR Value RFN10NS6S
SYMBOL diode 1472 448 R180
WINDOW 0 24 64 Left 2
WINDOW 3 24 0 Left 2
SYMATTR InstName D7
SYMATTR Value RFN10NS6S
SYMBOL diode 1472 672 R180
WINDOW 0 24 64 Left 2
WINDOW 3 24 0 Left 2
SYMATTR InstName D8
SYMATTR Value RFN10NS6S
SYMBOL res 1632 272 R90
WINDOW 0 0 56 VBottom 2
WINDOW 3 32 56 VTop 2
SYMATTR InstName R7
SYMATTR Value 1
SYMATTR SpiceLine tol=1 pwr=0.1
SYMBOL cap 1696 464 R0
SYMATTR InstName C2
SYMATTR Value 1µ
SYMATTR SpiceLine V=1000 Irms=0 Rser=0.053 Lser=13.114n
SYMBOL EXTRA\\IRF\\NMOSFET\\IRFS4227PBF -32 352 R0
SYMATTR InstName U1
SYMBOL EXTRA\\IRF\\NMOSFET\\IRFS4227PBF -32 608 R0
SYMATTR InstName U2
SYMBOL EXTRA\\IRF\\NMOSFET\\IRFS4227PBF 432 352 M0
SYMATTR InstName U3
SYMBOL EXTRA\\IRF\\NMOSFET\\IRFS4227PBF 432 608 M0
SYMATTR InstName U4
SYMBOL res 1184 464 R90
WINDOW 0 0 56 VBottom 2
WINDOW 3 32 56 VTop 2
SYMATTR InstName R8
SYMATTR Value 1k
SYMBOL res 288 496 R0
SYMATTR InstName R9
SYMATTR Value 1
TEXT -592 824 Left 2 !.tran 0 1m 0 10000
TEXT 824 536 Left 2 !K1 L2 L3 0.998
